Flow Title=Flow Boundary Conditions
Program Version=4.20
Use Restart= 0 
Restart Filename=Muncie.p05.02JAN1900 1200.rst
Initial Flow Loc=White           ,Muncie          ,15696.24,1000
Boundary Location=White           ,Muncie          ,15696.24,        ,                ,                ,                ,                
Interval=1HOUR
Flow Hydrograph= 65 
   13500   14000   14500   15000   15500   16000   16500   17000   17500   18000
   18500   19000   19500   20000   20500   21000   21000   21000   21000   21000
   21000   20500   20000   19500   19000   18500   18000   17500   17000   16500
   16000   15500   1500014583.3314166.67   1375013333.3312916.67   1250012083.33
11666.67   1125010833.3310416.67   10000 9666.67 9333.33    9000 8666.67 8333.33
    8000 7666.67 7333.33    7000 6666.67 6333.33    6000    5875    5750    5625
    5500    5375    5250    5125    5000
DSS Path=
Use DSS=False
Use Fixed Start Time=False
Fixed Start Date/Time=,
Is Critical Boundary=False
Critical Boundary Flow=
Boundary Location=White           ,Muncie          ,237.6455,        ,                ,                ,                ,                
Friction Slope=0.00064
