Flow Title=Steady Flow Profile
Program Version=5.00
Number of Profiles= 1 
Profile Names=PF 1
River Rch & RM=White,Muncie          ,15696.24
   15000
Boundary for River Rch & Prof#=White,Muncie          , 1 
Up Type= 0 
Dn Type= 3 
Dn Slope=0.00064
DSS Import StartDate=
DSS Import StartTime=
DSS Import EndDate=
DSS Import EndTime=
DSS Import GetInterval= 0 
DSS Import Interval=
DSS Import GetPeak= 0 
DSS Import FillOption= 0 
Storage Area Elev=2D Interior Area, 1 
     930
